/*--------------------------------*- C++ -*----------------------------------*\
| =========                 |                                                 |
| \\      /  F ield         | OpenFOAM: The Open Source CFD Toolbox           |
|  \\    /   O peration     | Version:  v2312                                 |
|   \\  /    A nd           | Website:  www.openfoam.com                      |
|    \\/     M anipulation  |                                                 |
\*---------------------------------------------------------------------------*/
FoamFile
{
    version         2.0;
    format          ascii;
    class           dictionary;
    object          blockMeshDict;
}
// * * * * * * * * * * * * * * * * * * * * * * * * * * * * * * * * * * * * * //

scale   1;


vertices
(



//Bottom Vertices: y = 0.0 


(0 0.0 0.0)              //0
(3.4847 0.0 0.0)              //1
(3.5152550000000002 0.0 0.0)              //2
(3.5458100000000004 0.0 0.0)              //3
(3.576365 0.0 0.0)              //4
(3.60692 0.0 0.0)              //5
(3.6374750000000002 0.0 0.0)              //6
(3.66803 0.0 0.0)              //7
(3.698585 0.0 0.0)              //8
(3.72914 0.0 0.0)              //9
(3.7596950000000002 0.0 0.0)              //10
(3.7902500000000003 0.0 0.0)              //11
(3.820805 0.0 0.0)              //12
(3.85136 0.0 0.0)              //13
(3.8819150000000002 0.0 0.0)              //14
(3.91247 0.0 0.0)              //15
(3.943025 0.0 0.0)              //16
(3.97358 0.0 0.0)              //17
(4.004135 0.0 0.0)              //18
(4.03469 0.0 0.0)              //19
(32 0.0 0.0)                 //20



//Middle Vertices: y = 0.01178 


(3.4965 0.01178 0.0)               //21
(3.5035 0.01178 0.0)                //22
(3.5270550000000003 0.01178 0.0)               //23
(3.534055 0.01178 0.0)                //24
(3.5576100000000004 0.01178 0.0)               //25
(3.56461 0.01178 0.0)                //26
(3.588165 0.01178 0.0)               //27
(3.5951649999999997 0.01178 0.0)                //28
(3.61872 0.01178 0.0)               //29
(3.62572 0.01178 0.0)                //30
(3.6492750000000003 0.01178 0.0)               //31
(3.656275 0.01178 0.0)                //32
(3.67983 0.01178 0.0)               //33
(3.6868299999999996 0.01178 0.0)                //34
(3.710385 0.01178 0.0)               //35
(3.7173849999999997 0.01178 0.0)                //36
(3.74094 0.01178 0.0)               //37
(3.74794 0.01178 0.0)                //38
(3.7714950000000003 0.01178 0.0)               //39
(3.778495 0.01178 0.0)                //40
(3.8020500000000004 0.01178 0.0)               //41
(3.80905 0.01178 0.0)                //42
(3.832605 0.01178 0.0)               //43
(3.8396049999999997 0.01178 0.0)                //44
(3.86316 0.01178 0.0)               //45
(3.87016 0.01178 0.0)                //46
(3.8937150000000003 0.01178 0.0)               //47
(3.900715 0.01178 0.0)                //48
(3.92427 0.01178 0.0)               //49
(3.9312699999999996 0.01178 0.0)                //50
(3.954825 0.01178 0.0)               //51
(3.9618249999999997 0.01178 0.0)                //52
(3.98538 0.01178 0.0)               //53
(3.99238 0.01178 0.0)                //54
(4.015935 0.01178 0.0)               //55
(4.0229349999999995 0.01178 0.0)                //56



//Top Vertices: y = 0.01878 


(3.4965 0.01878 0.0)              //57
(3.5035 0.01878 0.0)               //58
(3.5270550000000003 0.01878 0.0)              //59
(3.534055 0.01878 0.0)               //60
(3.5576100000000004 0.01878 0.0)              //61
(3.56461 0.01878 0.0)               //62
(3.588165 0.01878 0.0)              //63
(3.5951649999999997 0.01878 0.0)               //64
(3.61872 0.01878 0.0)              //65
(3.62572 0.01878 0.0)               //66
(3.6492750000000003 0.01878 0.0)              //67
(3.656275 0.01878 0.0)               //68
(3.67983 0.01878 0.0)              //69
(3.6868299999999996 0.01878 0.0)               //70
(3.710385 0.01878 0.0)              //71
(3.7173849999999997 0.01878 0.0)               //72
(3.74094 0.01878 0.0)              //73
(3.74794 0.01878 0.0)               //74
(3.7714950000000003 0.01878 0.0)              //75
(3.778495 0.01878 0.0)               //76
(3.8020500000000004 0.01878 0.0)              //77
(3.80905 0.01878 0.0)               //78
(3.832605 0.01878 0.0)              //79
(3.8396049999999997 0.01878 0.0)               //80
(3.86316 0.01878 0.0)              //81
(3.87016 0.01878 0.0)               //82
(3.8937150000000003 0.01878 0.0)              //83
(3.900715 0.01878 0.0)               //84
(3.92427 0.01878 0.0)              //85
(3.9312699999999996 0.01878 0.0)               //86
(3.954825 0.01878 0.0)              //87
(3.9618249999999997 0.01878 0.0)               //88
(3.98538 0.01878 0.0)              //89
(3.99238 0.01878 0.0)               //90
(4.015935 0.01878 0.0)              //91
(4.0229349999999995 0.01878 0.0)               //92



//Bottom Vertices: y = 0.030555 


(0 0.030555 0.0)              //93
(3.4847 0.030555 0.0)              //94
(3.5152550000000002 0.030555 0.0)              //95
(3.5458100000000004 0.030555 0.0)              //96
(3.576365 0.030555 0.0)              //97
(3.60692 0.030555 0.0)              //98
(3.6374750000000002 0.030555 0.0)              //99
(3.66803 0.030555 0.0)              //100
(3.698585 0.030555 0.0)              //101
(3.72914 0.030555 0.0)              //102
(3.7596950000000002 0.030555 0.0)              //103
(3.7902500000000003 0.030555 0.0)              //104
(3.820805 0.030555 0.0)              //105
(3.85136 0.030555 0.0)              //106
(3.8819150000000002 0.030555 0.0)              //107
(3.91247 0.030555 0.0)              //108
(3.943025 0.030555 0.0)              //109
(3.97358 0.030555 0.0)              //110
(4.004135 0.030555 0.0)              //111
(4.03469 0.030555 0.0)              //112
(32 0.030555 0.0)                 //113



//Middle Vertices: y = 0.042335 


(3.4965 0.042335 0.0)               //114
(3.5035 0.042335 0.0)                //115
(3.5270550000000003 0.042335 0.0)               //116
(3.534055 0.042335 0.0)                //117
(3.5576100000000004 0.042335 0.0)               //118
(3.56461 0.042335 0.0)                //119
(3.588165 0.042335 0.0)               //120
(3.5951649999999997 0.042335 0.0)                //121
(3.61872 0.042335 0.0)               //122
(3.62572 0.042335 0.0)                //123
(3.6492750000000003 0.042335 0.0)               //124
(3.656275 0.042335 0.0)                //125
(3.67983 0.042335 0.0)               //126
(3.6868299999999996 0.042335 0.0)                //127
(3.710385 0.042335 0.0)               //128
(3.7173849999999997 0.042335 0.0)                //129
(3.74094 0.042335 0.0)               //130
(3.74794 0.042335 0.0)                //131
(3.7714950000000003 0.042335 0.0)               //132
(3.778495 0.042335 0.0)                //133
(3.8020500000000004 0.042335 0.0)               //134
(3.80905 0.042335 0.0)                //135
(3.832605 0.042335 0.0)               //136
(3.8396049999999997 0.042335 0.0)                //137
(3.86316 0.042335 0.0)               //138
(3.87016 0.042335 0.0)                //139
(3.8937150000000003 0.042335 0.0)               //140
(3.900715 0.042335 0.0)                //141
(3.92427 0.042335 0.0)               //142
(3.9312699999999996 0.042335 0.0)                //143
(3.954825 0.042335 0.0)               //144
(3.9618249999999997 0.042335 0.0)                //145
(3.98538 0.042335 0.0)               //146
(3.99238 0.042335 0.0)                //147
(4.015935 0.042335 0.0)               //148
(4.0229349999999995 0.042335 0.0)                //149



//Top Vertices: y = 0.049335000000000004 


(3.4965 0.049335000000000004 0.0)              //150
(3.5035 0.049335000000000004 0.0)               //151
(3.5270550000000003 0.049335000000000004 0.0)              //152
(3.534055 0.049335000000000004 0.0)               //153
(3.5576100000000004 0.049335000000000004 0.0)              //154
(3.56461 0.049335000000000004 0.0)               //155
(3.588165 0.049335000000000004 0.0)              //156
(3.5951649999999997 0.049335000000000004 0.0)               //157
(3.61872 0.049335000000000004 0.0)              //158
(3.62572 0.049335000000000004 0.0)               //159
(3.6492750000000003 0.049335000000000004 0.0)              //160
(3.656275 0.049335000000000004 0.0)               //161
(3.67983 0.049335000000000004 0.0)              //162
(3.6868299999999996 0.049335000000000004 0.0)               //163
(3.710385 0.049335000000000004 0.0)              //164
(3.7173849999999997 0.049335000000000004 0.0)               //165
(3.74094 0.049335000000000004 0.0)              //166
(3.74794 0.049335000000000004 0.0)               //167
(3.7714950000000003 0.049335000000000004 0.0)              //168
(3.778495 0.049335000000000004 0.0)               //169
(3.8020500000000004 0.049335000000000004 0.0)              //170
(3.80905 0.049335000000000004 0.0)               //171
(3.832605 0.049335000000000004 0.0)              //172
(3.8396049999999997 0.049335000000000004 0.0)               //173
(3.86316 0.049335000000000004 0.0)              //174
(3.87016 0.049335000000000004 0.0)               //175
(3.8937150000000003 0.049335000000000004 0.0)              //176
(3.900715 0.049335000000000004 0.0)               //177
(3.92427 0.049335000000000004 0.0)              //178
(3.9312699999999996 0.049335000000000004 0.0)               //179
(3.954825 0.049335000000000004 0.0)              //180
(3.9618249999999997 0.049335000000000004 0.0)               //181
(3.98538 0.049335000000000004 0.0)              //182
(3.99238 0.049335000000000004 0.0)               //183
(4.015935 0.049335000000000004 0.0)              //184
(4.0229349999999995 0.049335000000000004 0.0)               //185



//Bottom Vertices: y = 0.06111 


(0 0.06111 0.0)              //186
(3.4847 0.06111 0.0)              //187
(3.5152550000000002 0.06111 0.0)              //188
(3.5458100000000004 0.06111 0.0)              //189
(3.576365 0.06111 0.0)              //190
(3.60692 0.06111 0.0)              //191
(3.6374750000000002 0.06111 0.0)              //192
(3.66803 0.06111 0.0)              //193
(3.698585 0.06111 0.0)              //194
(3.72914 0.06111 0.0)              //195
(3.7596950000000002 0.06111 0.0)              //196
(3.7902500000000003 0.06111 0.0)              //197
(3.820805 0.06111 0.0)              //198
(3.85136 0.06111 0.0)              //199
(3.8819150000000002 0.06111 0.0)              //200
(3.91247 0.06111 0.0)              //201
(3.943025 0.06111 0.0)              //202
(3.97358 0.06111 0.0)              //203
(4.004135 0.06111 0.0)              //204
(4.03469 0.06111 0.0)              //205
(32 0.06111 0.0)                 //206



//Middle Vertices: y = 0.07289 


(3.4965 0.07289 0.0)               //207
(3.5035 0.07289 0.0)                //208
(3.5270550000000003 0.07289 0.0)               //209
(3.534055 0.07289 0.0)                //210
(3.5576100000000004 0.07289 0.0)               //211
(3.56461 0.07289 0.0)                //212
(3.588165 0.07289 0.0)               //213
(3.5951649999999997 0.07289 0.0)                //214
(3.61872 0.07289 0.0)               //215
(3.62572 0.07289 0.0)                //216
(3.6492750000000003 0.07289 0.0)               //217
(3.656275 0.07289 0.0)                //218
(3.67983 0.07289 0.0)               //219
(3.6868299999999996 0.07289 0.0)                //220
(3.710385 0.07289 0.0)               //221
(3.7173849999999997 0.07289 0.0)                //222
(3.74094 0.07289 0.0)               //223
(3.74794 0.07289 0.0)                //224
(3.7714950000000003 0.07289 0.0)               //225
(3.778495 0.07289 0.0)                //226
(3.8020500000000004 0.07289 0.0)               //227
(3.80905 0.07289 0.0)                //228
(3.832605 0.07289 0.0)               //229
(3.8396049999999997 0.07289 0.0)                //230
(3.86316 0.07289 0.0)               //231
(3.87016 0.07289 0.0)                //232
(3.8937150000000003 0.07289 0.0)               //233
(3.900715 0.07289 0.0)                //234
(3.92427 0.07289 0.0)               //235
(3.9312699999999996 0.07289 0.0)                //236
(3.954825 0.07289 0.0)               //237
(3.9618249999999997 0.07289 0.0)                //238
(3.98538 0.07289 0.0)               //239
(3.99238 0.07289 0.0)                //240
(4.015935 0.07289 0.0)               //241
(4.0229349999999995 0.07289 0.0)                //242



//Top Vertices: y = 0.07989 


(3.4965 0.07989 0.0)              //243
(3.5035 0.07989 0.0)               //244
(3.5270550000000003 0.07989 0.0)              //245
(3.534055 0.07989 0.0)               //246
(3.5576100000000004 0.07989 0.0)              //247
(3.56461 0.07989 0.0)               //248
(3.588165 0.07989 0.0)              //249
(3.5951649999999997 0.07989 0.0)               //250
(3.61872 0.07989 0.0)              //251
(3.62572 0.07989 0.0)               //252
(3.6492750000000003 0.07989 0.0)              //253
(3.656275 0.07989 0.0)               //254
(3.67983 0.07989 0.0)              //255
(3.6868299999999996 0.07989 0.0)               //256
(3.710385 0.07989 0.0)              //257
(3.7173849999999997 0.07989 0.0)               //258
(3.74094 0.07989 0.0)              //259
(3.74794 0.07989 0.0)               //260
(3.7714950000000003 0.07989 0.0)              //261
(3.778495 0.07989 0.0)               //262
(3.8020500000000004 0.07989 0.0)              //263
(3.80905 0.07989 0.0)               //264
(3.832605 0.07989 0.0)              //265
(3.8396049999999997 0.07989 0.0)               //266
(3.86316 0.07989 0.0)              //267
(3.87016 0.07989 0.0)               //268
(3.8937150000000003 0.07989 0.0)              //269
(3.900715 0.07989 0.0)               //270
(3.92427 0.07989 0.0)              //271
(3.9312699999999996 0.07989 0.0)               //272
(3.954825 0.07989 0.0)              //273
(3.9618249999999997 0.07989 0.0)               //274
(3.98538 0.07989 0.0)              //275
(3.99238 0.07989 0.0)               //276
(4.015935 0.07989 0.0)              //277
(4.0229349999999995 0.07989 0.0)               //278



//Bottom Vertices: y = 0.091665 


(0 0.091665 0.0)              //279
(3.4847 0.091665 0.0)              //280
(3.5152550000000002 0.091665 0.0)              //281
(3.5458100000000004 0.091665 0.0)              //282
(3.576365 0.091665 0.0)              //283
(3.60692 0.091665 0.0)              //284
(3.6374750000000002 0.091665 0.0)              //285
(3.66803 0.091665 0.0)              //286
(3.698585 0.091665 0.0)              //287
(3.72914 0.091665 0.0)              //288
(3.7596950000000002 0.091665 0.0)              //289
(3.7902500000000003 0.091665 0.0)              //290
(3.820805 0.091665 0.0)              //291
(3.85136 0.091665 0.0)              //292
(3.8819150000000002 0.091665 0.0)              //293
(3.91247 0.091665 0.0)              //294
(3.943025 0.091665 0.0)              //295
(3.97358 0.091665 0.0)              //296
(4.004135 0.091665 0.0)              //297
(4.03469 0.091665 0.0)              //298
(32 0.091665 0.0)                 //299



//Middle Vertices: y = 0.103445 


(3.4965 0.103445 0.0)               //300
(3.5035 0.103445 0.0)                //301
(3.5270550000000003 0.103445 0.0)               //302
(3.534055 0.103445 0.0)                //303
(3.5576100000000004 0.103445 0.0)               //304
(3.56461 0.103445 0.0)                //305
(3.588165 0.103445 0.0)               //306
(3.5951649999999997 0.103445 0.0)                //307
(3.61872 0.103445 0.0)               //308
(3.62572 0.103445 0.0)                //309
(3.6492750000000003 0.103445 0.0)               //310
(3.656275 0.103445 0.0)                //311
(3.67983 0.103445 0.0)               //312
(3.6868299999999996 0.103445 0.0)                //313
(3.710385 0.103445 0.0)               //314
(3.7173849999999997 0.103445 0.0)                //315
(3.74094 0.103445 0.0)               //316
(3.74794 0.103445 0.0)                //317
(3.7714950000000003 0.103445 0.0)               //318
(3.778495 0.103445 0.0)                //319
(3.8020500000000004 0.103445 0.0)               //320
(3.80905 0.103445 0.0)                //321
(3.832605 0.103445 0.0)               //322
(3.8396049999999997 0.103445 0.0)                //323
(3.86316 0.103445 0.0)               //324
(3.87016 0.103445 0.0)                //325
(3.8937150000000003 0.103445 0.0)               //326
(3.900715 0.103445 0.0)                //327
(3.92427 0.103445 0.0)               //328
(3.9312699999999996 0.103445 0.0)                //329
(3.954825 0.103445 0.0)               //330
(3.9618249999999997 0.103445 0.0)                //331
(3.98538 0.103445 0.0)               //332
(3.99238 0.103445 0.0)                //333
(4.015935 0.103445 0.0)               //334
(4.0229349999999995 0.103445 0.0)                //335



//Top Vertices: y = 0.110445 


(3.4965 0.110445 0.0)              //336
(3.5035 0.110445 0.0)               //337
(3.5270550000000003 0.110445 0.0)              //338
(3.534055 0.110445 0.0)               //339
(3.5576100000000004 0.110445 0.0)              //340
(3.56461 0.110445 0.0)               //341
(3.588165 0.110445 0.0)              //342
(3.5951649999999997 0.110445 0.0)               //343
(3.61872 0.110445 0.0)              //344
(3.62572 0.110445 0.0)               //345
(3.6492750000000003 0.110445 0.0)              //346
(3.656275 0.110445 0.0)               //347
(3.67983 0.110445 0.0)              //348
(3.6868299999999996 0.110445 0.0)               //349
(3.710385 0.110445 0.0)              //350
(3.7173849999999997 0.110445 0.0)               //351
(3.74094 0.110445 0.0)              //352
(3.74794 0.110445 0.0)               //353
(3.7714950000000003 0.110445 0.0)              //354
(3.778495 0.110445 0.0)               //355
(3.8020500000000004 0.110445 0.0)              //356
(3.80905 0.110445 0.0)               //357
(3.832605 0.110445 0.0)              //358
(3.8396049999999997 0.110445 0.0)               //359
(3.86316 0.110445 0.0)              //360
(3.87016 0.110445 0.0)               //361
(3.8937150000000003 0.110445 0.0)              //362
(3.900715 0.110445 0.0)               //363
(3.92427 0.110445 0.0)              //364
(3.9312699999999996 0.110445 0.0)               //365
(3.954825 0.110445 0.0)              //366
(3.9618249999999997 0.110445 0.0)               //367
(3.98538 0.110445 0.0)              //368
(3.99238 0.110445 0.0)               //369
(4.015935 0.110445 0.0)              //370
(4.0229349999999995 0.110445 0.0)               //371



//Bottom Vertices: y = 0.12222 


(0 0.12222 0.0)              //372
(3.4847 0.12222 0.0)              //373
(3.5152550000000002 0.12222 0.0)              //374
(3.5458100000000004 0.12222 0.0)              //375
(3.576365 0.12222 0.0)              //376
(3.60692 0.12222 0.0)              //377
(3.6374750000000002 0.12222 0.0)              //378
(3.66803 0.12222 0.0)              //379
(3.698585 0.12222 0.0)              //380
(3.72914 0.12222 0.0)              //381
(3.7596950000000002 0.12222 0.0)              //382
(3.7902500000000003 0.12222 0.0)              //383
(3.820805 0.12222 0.0)              //384
(3.85136 0.12222 0.0)              //385
(3.8819150000000002 0.12222 0.0)              //386
(3.91247 0.12222 0.0)              //387
(3.943025 0.12222 0.0)              //388
(3.97358 0.12222 0.0)              //389
(4.004135 0.12222 0.0)              //390
(4.03469 0.12222 0.0)              //391
(32 0.12222 0.0)                 //392



//Middle Vertices: y = 0.134 


(3.4965 0.134 0.0)               //393
(3.5035 0.134 0.0)                //394
(3.5270550000000003 0.134 0.0)               //395
(3.534055 0.134 0.0)                //396
(3.5576100000000004 0.134 0.0)               //397
(3.56461 0.134 0.0)                //398
(3.588165 0.134 0.0)               //399
(3.5951649999999997 0.134 0.0)                //400
(3.61872 0.134 0.0)               //401
(3.62572 0.134 0.0)                //402
(3.6492750000000003 0.134 0.0)               //403
(3.656275 0.134 0.0)                //404
(3.67983 0.134 0.0)               //405
(3.6868299999999996 0.134 0.0)                //406
(3.710385 0.134 0.0)               //407
(3.7173849999999997 0.134 0.0)                //408
(3.74094 0.134 0.0)               //409
(3.74794 0.134 0.0)                //410
(3.7714950000000003 0.134 0.0)               //411
(3.778495 0.134 0.0)                //412
(3.8020500000000004 0.134 0.0)               //413
(3.80905 0.134 0.0)                //414
(3.832605 0.134 0.0)               //415
(3.8396049999999997 0.134 0.0)                //416
(3.86316 0.134 0.0)               //417
(3.87016 0.134 0.0)                //418
(3.8937150000000003 0.134 0.0)               //419
(3.900715 0.134 0.0)                //420
(3.92427 0.134 0.0)               //421
(3.9312699999999996 0.134 0.0)                //422
(3.954825 0.134 0.0)               //423
(3.9618249999999997 0.134 0.0)                //424
(3.98538 0.134 0.0)               //425
(3.99238 0.134 0.0)                //426
(4.015935 0.134 0.0)               //427
(4.0229349999999995 0.134 0.0)                //428



//Top Vertices: y = 0.141 


(3.4965 0.141 0.0)              //429
(3.5035 0.141 0.0)               //430
(3.5270550000000003 0.141 0.0)              //431
(3.534055 0.141 0.0)               //432
(3.5576100000000004 0.141 0.0)              //433
(3.56461 0.141 0.0)               //434
(3.588165 0.141 0.0)              //435
(3.5951649999999997 0.141 0.0)               //436
(3.61872 0.141 0.0)              //437
(3.62572 0.141 0.0)               //438
(3.6492750000000003 0.141 0.0)              //439
(3.656275 0.141 0.0)               //440
(3.67983 0.141 0.0)              //441
(3.6868299999999996 0.141 0.0)               //442
(3.710385 0.141 0.0)              //443
(3.7173849999999997 0.141 0.0)               //444
(3.74094 0.141 0.0)              //445
(3.74794 0.141 0.0)               //446
(3.7714950000000003 0.141 0.0)              //447
(3.778495 0.141 0.0)               //448
(3.8020500000000004 0.141 0.0)              //449
(3.80905 0.141 0.0)               //450
(3.832605 0.141 0.0)              //451
(3.8396049999999997 0.141 0.0)               //452
(3.86316 0.141 0.0)              //453
(3.87016 0.141 0.0)               //454
(3.8937150000000003 0.141 0.0)              //455
(3.900715 0.141 0.0)               //456
(3.92427 0.141 0.0)              //457
(3.9312699999999996 0.141 0.0)               //458
(3.954825 0.141 0.0)              //459
(3.9618249999999997 0.141 0.0)               //460
(3.98538 0.141 0.0)              //461
(3.99238 0.141 0.0)               //462
(4.015935 0.141 0.0)              //463
(4.0229349999999995 0.141 0.0)               //464



//Bottom Vertices: y = 0.152775 


(0 0.152775 0.0)              //465
(3.4847 0.152775 0.0)              //466
(3.5152550000000002 0.152775 0.0)              //467
(3.5458100000000004 0.152775 0.0)              //468
(3.576365 0.152775 0.0)              //469
(3.60692 0.152775 0.0)              //470
(3.6374750000000002 0.152775 0.0)              //471
(3.66803 0.152775 0.0)              //472
(3.698585 0.152775 0.0)              //473
(3.72914 0.152775 0.0)              //474
(3.7596950000000002 0.152775 0.0)              //475
(3.7902500000000003 0.152775 0.0)              //476
(3.820805 0.152775 0.0)              //477
(3.85136 0.152775 0.0)              //478
(3.8819150000000002 0.152775 0.0)              //479
(3.91247 0.152775 0.0)              //480
(3.943025 0.152775 0.0)              //481
(3.97358 0.152775 0.0)              //482
(4.004135 0.152775 0.0)              //483
(4.03469 0.152775 0.0)              //484
(32 0.152775 0.0)                 //485



//Middle Vertices: y = 0.164555 


(3.4965 0.164555 0.0)               //486
(3.5035 0.164555 0.0)                //487
(3.5270550000000003 0.164555 0.0)               //488
(3.534055 0.164555 0.0)                //489
(3.5576100000000004 0.164555 0.0)               //490
(3.56461 0.164555 0.0)                //491
(3.588165 0.164555 0.0)               //492
(3.5951649999999997 0.164555 0.0)                //493
(3.61872 0.164555 0.0)               //494
(3.62572 0.164555 0.0)                //495
(3.6492750000000003 0.164555 0.0)               //496
(3.656275 0.164555 0.0)                //497
(3.67983 0.164555 0.0)               //498
(3.6868299999999996 0.164555 0.0)                //499
(3.710385 0.164555 0.0)               //500
(3.7173849999999997 0.164555 0.0)                //501
(3.74094 0.164555 0.0)               //502
(3.74794 0.164555 0.0)                //503
(3.7714950000000003 0.164555 0.0)               //504
(3.778495 0.164555 0.0)                //505
(3.8020500000000004 0.164555 0.0)               //506
(3.80905 0.164555 0.0)                //507
(3.832605 0.164555 0.0)               //508
(3.8396049999999997 0.164555 0.0)                //509
(3.86316 0.164555 0.0)               //510
(3.87016 0.164555 0.0)                //511
(3.8937150000000003 0.164555 0.0)               //512
(3.900715 0.164555 0.0)                //513
(3.92427 0.164555 0.0)               //514
(3.9312699999999996 0.164555 0.0)                //515
(3.954825 0.164555 0.0)               //516
(3.9618249999999997 0.164555 0.0)                //517
(3.98538 0.164555 0.0)               //518
(3.99238 0.164555 0.0)                //519
(4.015935 0.164555 0.0)               //520
(4.0229349999999995 0.164555 0.0)                //521



//Top Vertices: y = 0.17155499999999999 


(3.4965 0.17155499999999999 0.0)              //522
(3.5035 0.17155499999999999 0.0)               //523
(3.5270550000000003 0.17155499999999999 0.0)              //524
(3.534055 0.17155499999999999 0.0)               //525
(3.5576100000000004 0.17155499999999999 0.0)              //526
(3.56461 0.17155499999999999 0.0)               //527
(3.588165 0.17155499999999999 0.0)              //528
(3.5951649999999997 0.17155499999999999 0.0)               //529
(3.61872 0.17155499999999999 0.0)              //530
(3.62572 0.17155499999999999 0.0)               //531
(3.6492750000000003 0.17155499999999999 0.0)              //532
(3.656275 0.17155499999999999 0.0)               //533
(3.67983 0.17155499999999999 0.0)              //534
(3.6868299999999996 0.17155499999999999 0.0)               //535
(3.710385 0.17155499999999999 0.0)              //536
(3.7173849999999997 0.17155499999999999 0.0)               //537
(3.74094 0.17155499999999999 0.0)              //538
(3.74794 0.17155499999999999 0.0)               //539
(3.7714950000000003 0.17155499999999999 0.0)              //540
(3.778495 0.17155499999999999 0.0)               //541
(3.8020500000000004 0.17155499999999999 0.0)              //542
(3.80905 0.17155499999999999 0.0)               //543
(3.832605 0.17155499999999999 0.0)              //544
(3.8396049999999997 0.17155499999999999 0.0)               //545
(3.86316 0.17155499999999999 0.0)              //546
(3.87016 0.17155499999999999 0.0)               //547
(3.8937150000000003 0.17155499999999999 0.0)              //548
(3.900715 0.17155499999999999 0.0)               //549
(3.92427 0.17155499999999999 0.0)              //550
(3.9312699999999996 0.17155499999999999 0.0)               //551
(3.954825 0.17155499999999999 0.0)              //552
(3.9618249999999997 0.17155499999999999 0.0)               //553
(3.98538 0.17155499999999999 0.0)              //554
(3.99238 0.17155499999999999 0.0)               //555
(4.015935 0.17155499999999999 0.0)              //556
(4.0229349999999995 0.17155499999999999 0.0)               //557



//Bottom Vertices: y = 0.18333 


(0 0.18333 0.0)              //558
(3.4847 0.18333 0.0)              //559
(3.5152550000000002 0.18333 0.0)              //560
(3.5458100000000004 0.18333 0.0)              //561
(3.576365 0.18333 0.0)              //562
(3.60692 0.18333 0.0)              //563
(3.6374750000000002 0.18333 0.0)              //564
(3.66803 0.18333 0.0)              //565
(3.698585 0.18333 0.0)              //566
(3.72914 0.18333 0.0)              //567
(3.7596950000000002 0.18333 0.0)              //568
(3.7902500000000003 0.18333 0.0)              //569
(3.820805 0.18333 0.0)              //570
(3.85136 0.18333 0.0)              //571
(3.8819150000000002 0.18333 0.0)              //572
(3.91247 0.18333 0.0)              //573
(3.943025 0.18333 0.0)              //574
(3.97358 0.18333 0.0)              //575
(4.004135 0.18333 0.0)              //576
(4.03469 0.18333 0.0)              //577
(32 0.18333 0.0)                 //578



//Middle Vertices: y = 0.19511 


(3.4965 0.19511 0.0)               //579
(3.5035 0.19511 0.0)                //580
(3.5270550000000003 0.19511 0.0)               //581
(3.534055 0.19511 0.0)                //582
(3.5576100000000004 0.19511 0.0)               //583
(3.56461 0.19511 0.0)                //584
(3.588165 0.19511 0.0)               //585
(3.5951649999999997 0.19511 0.0)                //586
(3.61872 0.19511 0.0)               //587
(3.62572 0.19511 0.0)                //588
(3.6492750000000003 0.19511 0.0)               //589
(3.656275 0.19511 0.0)                //590
(3.67983 0.19511 0.0)               //591
(3.6868299999999996 0.19511 0.0)                //592
(3.710385 0.19511 0.0)               //593
(3.7173849999999997 0.19511 0.0)                //594
(3.74094 0.19511 0.0)               //595
(3.74794 0.19511 0.0)                //596
(3.7714950000000003 0.19511 0.0)               //597
(3.778495 0.19511 0.0)                //598
(3.8020500000000004 0.19511 0.0)               //599
(3.80905 0.19511 0.0)                //600
(3.832605 0.19511 0.0)               //601
(3.8396049999999997 0.19511 0.0)                //602
(3.86316 0.19511 0.0)               //603
(3.87016 0.19511 0.0)                //604
(3.8937150000000003 0.19511 0.0)               //605