/*--------------------------------*- C++ -*----------------------------------*\
| =========                 |                                                 |
| \\      /  F ield         | OpenFOAM: The Open Source CFD Toolbox           |
|  \\    /   O peration     | Version:  v2312                                 |
|   \\  /    A nd           | Website:  www.openfoam.com                      |
|    \\/     M anipulation  |                                                 |
\*---------------------------------------------------------------------------*/
FoamFile
{
    version         2.0;
    format          ascii;
    class           dictionary;
    object          blockMeshDict;
}
// * * * * * * * * * * * * * * * * * * * * * * * * * * * * * * * * * * * * * //

scale   1;


vertices
(
//Vertices: Set  1
( 0   0.0  0) // 0
( 3.4847   0.0  0) // 1
( 3.5152777   0.0  0) // 2
( 32   0.0  0) // 3
( 3.4965   0.0117777  0) // 4
( 3.5035   0.0117777  0) // 5
( 3.4965   0.0187777  0) // 6
( 3.5035   0.0187777  0) // 7


//Vertices: Set  2
( 0   0.030555  0) // 8
( 3.4847   0.030555  0) // 9
( 3.5152777   0.030555  0) // 10
( 32   0.030555  0) // 11
( 3.4965   0.0423327  0) // 12
( 3.5035   0.0423327  0) // 13
( 3.4965   0.0493327  0) // 14
( 3.5035   0.0493327  0) // 15


//Vertices: Set  3
( 0   0.06111  0) // 16
( 3.4847   0.06111  0) // 17
( 3.5152777   0.06111  0) // 18
( 32   0.06111  0) // 19
( 3.4965   0.0728877  0) // 20
( 3.5035   0.0728877  0) // 21
( 3.4965   0.0798877  0) // 22
( 3.5035   0.0798877  0) // 23


//Vertices: Set  4
( 0   0.091665  0) // 24
( 3.4847   0.091665  0) // 25
( 3.5152777   0.091665  0) // 26
( 32   0.091665  0) // 27
( 3.4965   0.1034427  0) // 28
( 3.5035   0.1034427  0) // 29
( 3.4965   0.1104427  0) // 30
( 3.5035   0.1104427  0) // 31


//Vertices: Set  5
( 0   0.12222  0) // 32
( 3.4847   0.12222  0) // 33
( 3.5152777   0.12222  0) // 34
( 32   0.12222  0) // 35
( 3.4965   0.1339977  0) // 36
( 3.5035   0.1339977  0) // 37
( 3.4965   0.1409977  0) // 38
( 3.5035   0.1409977  0) // 39


//Vertices: Set  6
( 0   0.152775  0) // 40
( 3.4847   0.152775  0) // 41
( 3.5152777   0.152775  0) // 42
( 32   0.152775  0) // 43
( 3.4965   0.1645527  0) // 44
( 3.5035   0.1645527  0) // 45
( 3.4965   0.1715527  0) // 46
( 3.5035   0.1715527  0) // 47


//Vertices: Set  7
( 0   0.18333  0) // 48
( 3.4847   0.18333  0) // 49
( 3.5152777   0.18333  0) // 50
( 32   0.18333  0) // 51
( 3.4965   0.1951077  0) // 52
( 3.5035   0.1951077  0) // 53
( 3.4965   0.2021077  0) // 54
( 3.5035   0.2021077  0) // 55


//Vertices: Set  8
( 0   0.213885  0) // 56
( 3.4847   0.213885  0) // 57
( 3.5152777   0.213885  0) // 58
( 32   0.213885  0) // 59
( 3.4965   0.2256627  0) // 60
( 3.5035   0.2256627  0) // 61
( 3.4965   0.2326627  0) // 62
( 3.5035   0.2326627  0) // 63


//Vertices: Set  9
( 0   0.24444  0) // 64
( 3.4847   0.24444  0) // 65
( 3.5152777   0.24444  0) // 66
( 32   0.24444  0) // 67
( 3.4965   0.2562177  0) // 68
( 3.5035   0.2562177  0) // 69
( 3.4965   0.2632177  0) // 70
( 3.5035   0.2632177  0) // 71


//Vertices: Set  10
( 0   0.274995  0) // 72
( 3.4847   0.274995  0) // 73
( 3.5152777   0.274995  0) // 74
( 32   0.274995  0) // 75
( 3.4965   0.2867727  0) // 76
( 3.5035   0.2867727  0) // 77
( 3.4965   0.2937727  0) // 78
( 3.5035   0.2937727  0) // 79


//Vertices: Set  11
( 0   0.30555  0) // 80
( 3.4847   0.30555  0) // 81
( 3.5152777   0.30555  0) // 82
( 32   0.30555  0) // 83
( 3.4965   0.3173277  0) // 84
( 3.5035   0.3173277  0) // 85
( 3.4965   0.3243277  0) // 86
( 3.5035   0.3243277  0) // 87


//Vertices: Set  12
( 0   0.336105  0) // 88
( 3.4847   0.336105  0) // 89
( 3.5152777   0.336105  0) // 90
( 32   0.336105  0) // 91
( 3.4965   0.3478827  0) // 92
( 3.5035   0.3478827  0) // 93
( 3.4965   0.3548827  0) // 94
( 3.5035   0.3548827  0) // 95


//Vertices: Set  13
( 0   0.36666  0) // 96
( 3.4847   0.36666  0) // 97
( 3.5152777   0.36666  0) // 98
( 32   0.36666  0) // 99
( 3.4965   0.3784377  0) // 100
( 3.5035   0.3784377  0) // 101
( 3.4965   0.3854377  0) // 102
( 3.5035   0.3854377  0) // 103


//Vertices: Set  14
( 0   0.397215  0) // 104
( 3.4847   0.397215  0) // 105
( 3.5152777   0.397215  0) // 106
( 32   0.397215  0) // 107
( 3.4965   0.4089927  0) // 108
( 3.5035   0.4089927  0) // 109
( 3.4965   0.4159927  0) // 110
( 3.5035   0.4159927  0) // 111


//Vertices: Set  15
( 0   0.42777  0) // 112
( 3.4847   0.42777  0) // 113
( 3.5152777   0.42777  0) // 114
( 32   0.42777  0) // 115
( 3.4965   0.4395477  0) // 116
( 3.5035   0.4395477  0) // 117
( 3.4965   0.4465477  0) // 118
( 3.5035   0.4465477  0) // 119


//Vertices: Set  16
( 0   0.458325  0) // 120
( 3.4847   0.458325  0) // 121
( 3.5152777   0.458325  0) // 122
( 32   0.458325  0) // 123
( 3.4965   0.4701027  0) // 124
( 3.5035   0.4701027  0) // 125
( 3.4965   0.4771027  0) // 126
( 3.5035   0.4771027  0) // 127


//Vertices: Set  17
( 0   0.48888  0) // 128
( 3.4847   0.48888  0) // 129
( 3.5152777   0.48888  0) // 130
( 32   0.48888  0) // 131
( 3.4965   0.5006577  0) // 132
( 3.5035   0.5006577  0) // 133
( 3.4965   0.5076577  0) // 134
( 3.5035   0.5076577  0) // 135


//Vertices: Set  18
( 0   0.519435  0) // 136
( 3.4847   0.519435  0) // 137
( 3.5152777   0.519435  0) // 138
( 32   0.519435  0) // 139
( 3.4965   0.5312127  0) // 140
( 3.5035   0.5312127  0) // 141
( 3.4965   0.5382127  0) // 142
( 3.5035   0.5382127  0) // 143


//Edge vertices bottom
( 0   0.54999  0) // 144
( 3.4847   0.54999  0) // 145
( 3.5152777   0.54999  0) // 146
( 32   0.54999  0) // 147


//Vertices: Set  1
( 0   0.0  0.45) // 148
( 3.4847   0.0  0.45) // 149
( 3.5152777   0.0  0.45) // 150
( 32   0.0  0.45) // 151
( 3.4965   0.0117777  0.45) // 152
( 3.5035   0.0117777  0.45) // 153
( 3.4965   0.0187777  0.45) // 154
( 3.5035   0.0187777  0.45) // 155


//Vertices: Set  2
( 0   0.030555  0.45) // 156
( 3.4847   0.030555  0.45) // 157
( 3.5152777   0.030555  0.45) // 158
( 32   0.030555  0.45) // 159
( 3.4965   0.0423327  0.45) // 160
( 3.5035   0.0423327  0.45) // 161
( 3.4965   0.0493327  0.45) // 162
( 3.5035   0.0493327  0.45) // 163


//Vertices: Set  3
( 0   0.06111  0.45) // 164
( 3.4847   0.06111  0.45) // 165
( 3.5152777   0.06111  0.45) // 166
( 32   0.06111  0.45) // 167
( 3.4965   0.0728877  0.45) // 168
( 3.5035   0.0728877  0.45) // 169
( 3.4965   0.0798877  0.45) // 170
( 3.5035   0.0798877  0.45) // 171


//Vertices: Set  4
( 0   0.091665  0.45) // 172
( 3.4847   0.091665  0.45) // 173
( 3.5152777   0.091665  0.45) // 174
( 32   0.091665  0.45) // 175
( 3.4965   0.1034427  0.45) // 176
( 3.5035   0.1034427  0.45) // 177
( 3.4965   0.1104427  0.45) // 178
( 3.5035   0.1104427  0.45) // 179


//Vertices: Set  5
( 0   0.12222  0.45) // 180
( 3.4847   0.12222  0.45) // 181
( 3.5152777   0.12222  0.45) // 182
( 32   0.12222  0.45) // 183
( 3.4965   0.1339977  0.45) // 184
( 3.5035   0.1339977  0.45) // 185
( 3.4965   0.1409977  0.45) // 186
( 3.5035   0.1409977  0.45) // 187


//Vertices: Set  6
( 0   0.152775  0.45) // 188
( 3.4847   0.152775  0.45) // 189
( 3.5152777   0.152775  0.45) // 190
( 32   0.152775  0.45) // 191
( 3.4965   0.1645527  0.45) // 192
( 3.5035   0.1645527  0.45) // 193
( 3.4965   0.1715527  0.45) // 194
( 3.5035   0.1715527  0.45) // 195


//Vertices: Set  7
( 0   0.18333  0.45) // 196
( 3.4847   0.18333  0.45) // 197
( 3.5152777   0.18333  0.45) // 198
( 32   0.18333  0.45) // 199
( 3.4965   0.1951077  0.45) // 200
( 3.5035   0.1951077  0.45) // 201
( 3.4965   0.2021077  0.45) // 202
( 3.5035   0.2021077  0.45) // 203


//Vertices: Set  8
( 0   0.213885  0.45) // 204
( 3.4847   0.213885  0.45) // 205
( 3.5152777   0.213885  0.45) // 206
( 32   0.213885  0.45) // 207
( 3.4965   0.2256627  0.45) // 208
( 3.5035   0.2256627  0.45) // 209
( 3.4965   0.2326627  0.45) // 210
( 3.5035   0.2326627  0.45) // 211


//Vertices: Set  9
( 0   0.24444  0.45) // 212
( 3.4847   0.24444  0.45) // 213
( 3.5152777   0.24444  0.45) // 214
( 32   0.24444  0.45) // 215
( 3.4965   0.2562177  0.45) // 216
( 3.5035   0.2562177  0.45) // 217
( 3.4965   0.2632177  0.45) // 218
( 3.5035   0.2632177  0.45) // 219


//Vertices: Set  10
( 0   0.274995  0.45) // 220
( 3.4847   0.274995  0.45) // 221
( 3.5152777   0.274995  0.45) // 222
( 32   0.274995  0.45) // 223
( 3.4965   0.2867727  0.45) // 224
( 3.5035   0.2867727  0.45) // 225
( 3.4965   0.2937727  0.45) // 226
( 3.5035   0.2937727  0.45) // 227


//Vertices: Set  11
( 0   0.30555  0.45) // 228
( 3.4847   0.30555  0.45) // 229
( 3.5152777   0.30555  0.45) // 230
( 32   0.30555  0.45) // 231
( 3.4965   0.3173277  0.45) // 232
( 3.5035   0.3173277  0.45) // 233
( 3.4965   0.3243277  0.45) // 234
( 3.5035   0.3243277  0.45) // 235


//Vertices: Set  12
( 0   0.336105  0.45) // 236
( 3.4847   0.336105  0.45) // 237
( 3.5152777   0.336105  0.45) // 238
( 32   0.336105  0.45) // 239
( 3.4965   0.3478827  0.45) // 240
( 3.5035   0.3478827  0.45) // 241
( 3.4965   0.3548827  0.45) // 242
( 3.5035   0.3548827  0.45) // 243


//Vertices: Set  13
( 0   0.36666  0.45) // 244
( 3.4847   0.36666  0.45) // 245
( 3.5152777   0.36666  0.45) // 246
( 32   0.36666  0.45) // 247
( 3.4965   0.3784377  0.45) // 248
( 3.5035   0.3784377  0.45) // 249
( 3.4965   0.3854377  0.45) // 250
( 3.5035   0.3854377  0.45) // 251


//Vertices: Set  14
( 0   0.397215  0.45) // 252
( 3.4847   0.397215  0.45) // 253
( 3.5152777   0.397215  0.45) // 254
( 32   0.397215  0.45) // 255
( 3.4965   0.4089927  0.45) // 256
( 3.5035   0.4089927  0.45) // 257
( 3.4965   0.4159927  0.45) // 258
( 3.5035   0.4159927  0.45) // 259


//Vertices: Set  15
( 0   0.42777  0.45) // 260
( 3.4847   0.42777  0.45) // 261
( 3.5152777   0.42777  0.45) // 262
( 32   0.42777  0.45) // 263
( 3.4965   0.4395477  0.45) // 264
( 3.5035   0.4395477  0.45) // 265
( 3.4965   0.4465477  0.45) // 266
( 3.5035   0.4465477  0.45) // 267


//Vertices: Set  16
( 0   0.458325  0.45) // 268
( 3.4847   0.458325  0.45) // 269
( 3.5152777   0.458325  0.45) // 270
( 32   0.458325  0.45) // 271
( 3.4965   0.4701027  0.45) // 272
( 3.5035   0.4701027  0.45) // 273
( 3.4965   0.4771027  0.45) // 274
( 3.5035   0.4771027  0.45) // 275


//Vertices: Set  17
( 0   0.48888  0.45) // 276
( 3.4847   0.48888  0.45) // 277
( 3.5152777   0.48888  0.45) // 278
( 32   0.48888  0.45) // 279
( 3.4965   0.5006577  0.45) // 280
( 3.5035   0.5006577  0.45) // 281
( 3.4965   0.5076577  0.45) // 282
( 3.5035   0.5076577  0.45) // 283


//Vertices: Set  18
( 0   0.519435  0.45) // 284
( 3.4847   0.519435  0.45) // 285
( 3.5152777   0.519435  0.45) // 286
( 32   0.519435  0.45) // 287
( 3.4965   0.5312127  0.45) // 288
( 3.5035   0.5312127  0.45) // 289
( 3.4965   0.5382127  0.45) // 290
( 3.5035   0.5382127  0.45) // 291


//Edge vertices top
( 0   0.54999  0.45) // 292
( 3.4847   0.54999  0.45) // 293
( 3.5152777   0.54999  0.45) // 294
( 32   0.54999  0.45) // 295


);


blocks
(
//Set 1
//block A
	hex (0 1 9 8 148 149 157 156)   (697 6 150) simpleGrading (1 1 1)
//block B
	hex (1 2 5 4 149 150 153 152)   (6 2 150) simpleGrading (1 1 1)
//block C
	hex (1 4 6 9 149 152 154 157)   (2 6 150) simpleGrading (1 1 1)
//block D
	hex (6 7 10 9 154 155 158 157)   (6 2 150) simpleGrading (1 1 1)
//block E
	hex (5 2 10 7 153 150 158 155)   (2 6 150) simpleGrading (1 1 1)
//block F
	hex (2 3 11 10 150 151 159 158)   (5696 6 150) simpleGrading (1 1 1)


//Set 2
//block A
	hex (8 9 17 16 156 157 165 164)   (697 6 150) simpleGrading (1 1 1)
//block B
	hex (9 10 13 12 157 158 161 160)   (6 2 150) simpleGrading (1 1 1)
//block C
	hex (9 12 14 17 157 160 162 165)   (2 6 150) simpleGrading (1 1 1)
//block D
	hex (14 15 18 17 162 163 166 165)   (6 2 150) simpleGrading (1 1 1)
//block E
	hex (13 10 18 15 161 158 166 163)   (2 6 150) simpleGrading (1 1 1)
//block F
	hex (10 11 19 18 158 159 167 166)   (5696 6 150) simpleGrading (1 1 1)


//Set 3
//block A
	hex (16 17 25 24 164 165 173 172)   (697 6 150) simpleGrading (1 1 1)
//block B
	hex (17 18 21 20 165 166 169 168)   (6 2 150) simpleGrading (1 1 1)
//block C
	hex (17 20 22 25 165 168 170 173)   (2 6 150) simpleGrading (1 1 1)
//block D
	hex (22 23 26 25 170 171 174 173)   (6 2 150) simpleGrading (1 1 1)
//block E
	hex (21 18 26 23 169 166 174 171)   (2 6 150) simpleGrading (1 1 1)
//block F
	hex (18 19 27 26 166 167 175 174)   (5696 6 150) simpleGrading (1 1 1)


//Set 4
//block A
	hex (24 25 33 32 172 173 181 180)   (697 6 150) simpleGrading (1 1 1)
//block B
	hex (25 26 29 28 173 174 177 176)   (6 2 150) simpleGrading (1 1 1)
//block C
	hex (25 28 30 33 173 176 178 181)   (2 6 150) simpleGrading (1 1 1)
//block D
	hex (30 31 34 33 178 179 182 181)   (6 2 150) simpleGrading (1 1 1)
//block E
	hex (29 26 34 31 177 174 182 179)   (2 6 150) simpleGrading (1 1 1)
//block F
	hex (26 27 35 34 174 175 183 182)   (5696 6 150) simpleGrading (1 1 1)


//Set 5
//block A
	hex (32 33 41 40 180 181 189 188)   (697 6 150) simpleGrading (1 1 1)
//block B
	hex (33 34 37 36 181 182 185 184)   (6 2 150) simpleGrading (1 1 1)
//block C
	hex (33 36 38 41 181 184 186 189)   (2 6 150) simpleGrading (1 1 1)
//block D
	hex (38 39 42 41 186 187 190 189)   (6 2 150) simpleGrading (1 1 1)
//block E
	hex (37 34 42 39 185 182 190 187)   (2 6 150) simpleGrading (1 1 1)
//block F
	hex (34 35 43 42 182 183 191 190)   (5696 6 150) simpleGrading (1 1 1)


//Set 6
//block A
	hex (40 41 49 48 188 189 197 196)   (697 6 150) simpleGrading (1 1 1)
//block B
	hex (41 42 45 44 189 190 193 192)   (6 2 150) simpleGrading (1 1 1)
//block C
	hex (41 44 46 49 189 192 194 197)   (2 6 150) simpleGrading (1 1 1)
//block D
	hex (46 47 50 49 194 195 198 197)   (6 2 150) simpleGrading (1 1 1)
//block E
	hex (45 42 50 47 193 190 198 195)   (2 6 150) simpleGrading (1 1 1)
//block F
	hex (42 43 51 50 190 191 199 198)   (5696 6 150) simpleGrading (1 1 1)


//Set 7
//block A
	hex (48 49 57 56 196 197 205 204)   (697 6 150) simpleGrading (1 1 1)
//block B
	hex (49 50 53 52 197 198 201 200)   (6 2 150) simpleGrading (1 1 1)
//block C
	hex (49 52 54 57 197 200 202 205)   (2 6 150) simpleGrading (1 1 1)
//block D
	hex (54 55 58 57 202 203 206 205)   (6 2 150) simpleGrading (1 1 1)
//block E
	hex (53 50 58 55 201 198 206 203)   (2 6 150) simpleGrading (1 1 1)
//block F
	hex (50 51 59 58 198 199 207 206)   (5696 6 150) simpleGrading (1 1 1)


//Set 8
//block A
	hex (56 57 65 64 204 205 213 212)   (697 6 150) simpleGrading (1 1 1)
//block B
	hex (57 58 61 60 205 206 209 208)   (6 2 150) simpleGrading (1 1 1)
//block C
	hex (57 60 62 65 205 208 210 213)   (2 6 150) simpleGrading (1 1 1)
//block D
	hex (62 63 66 65 210 211 214 213)   (6 2 150) simpleGrading (1 1 1)
//block E
	hex (61 58 66 63 209 206 214 211)   (2 6 150) simpleGrading (1 1 1)
//block F
	hex (58 59 67 66 206 207 215 214)   (5696 6 150) simpleGrading (1 1 1)


//Set 9
//block A
	hex (64 65 73 72 212 213 221 220)   (697 6 150) simpleGrading (1 1 1)
//block B
	hex (65 66 69 68 213 214 217 216)   (6 2 150) simpleGrading (1 1 1)
//block C
	hex (65 68 70 73 213 216 218 221)   (2 6 150) simpleGrading (1 1 1)
//block D
	hex (70 71 74 73 218 219 222 221)   (6 2 150) simpleGrading (1 1 1)
//block E
	hex (69 66 74 71 217 214 222 219)   (2 6 150) simpleGrading (1 1 1)
//block F
	hex (66 67 75 74 214 215 223 222)   (5696 6 150) simpleGrading (1 1 1)


//Set 10
//block A
	hex (72 73 81 80 220 221 229 228)   (697 6 150) simpleGrading (1 1 1)
//block B
	hex (73 74 77 76 221 222 225 224)   (6 2 150) simpleGrading (1 1 1)
//block C
	hex (73 76 78 81 221 224 226 229)   (2 6 150) simpleGrading (1 1 1)
//block D
	hex (78 79 82 81 226 227 230 229)   (6 2 150) simpleGrading (1 1 1)
//block E
	hex (77 74 82 79 225 222 230 227)   (2 6 150) simpleGrading (1 1 1)
//block F
	hex (74 75 83 82 222 223 231 230)   (5696 6 150) simpleGrading (1 1 1)


//Set 11
//block A
	hex (80 81 89 88 228 229 237 236)   (697 6 150) simpleGrading (1 1 1)
//block B
	hex (81 82 85 84 229 230 233 232)   (6 2 150) simpleGrading (1 1 1)
//block C
	hex (81 84 86 89 229 232 234 237)   (2 6 150) simpleGrading (1 1 1)
//block D
	hex (86 87 90 89 234 235 238 237)   (6 2 150) simpleGrading (1 1 1)
//block E
	hex (85 82 90 87 233 230 238 235)   (2 6 150) simpleGrading (1 1 1)
//block F
	hex (82 83 91 90 230 231 239 238)   (5696 6 150) simpleGrading (1 1 1)


//Set 12
//block A
	hex (88 89 97 96 236 237 245 244)   (697 6 150) simpleGrading (1 1 1)
//block B
	hex (89 90 93 92 237 238 241 240)   (6 2 150) simpleGrading (1 1 1)
//block C
	hex (89 92 94 97 237 240 242 245)   (2 6 150) simpleGrading (1 1 1)
//block D
	hex (94 95 98 97 242 243 246 245)   (6 2 150) simpleGrading (1 1 1)
//block E
	hex (93 90 98 95 241 238 246 243)   (2 6 150) simpleGrading (1 1 1)
//block F
	hex (90 91 99 98 238 239 247 246)   (5696 6 150) simpleGrading (1 1 1)


//Set 13
//block A
	hex (96 97 105 104 244 245 253 252)   (697 6 150) simpleGrading (1 1 1)
//block B
	hex (97 98 101 100 245 246 249 248)   (6 2 150) simpleGrading (1 1 1)
//block C
	hex (97 100 102 105 245 248 250 253)   (2 6 150) simpleGrading (1 1 1)
//block D
	hex (102 103 106 105 250 251 254 253)   (6 2 150) simpleGrading (1 1 1)
//block E
	hex (101 98 106 103 249 246 254 251)   (2 6 150) simpleGrading (1 1 1)
//block F
	hex (98 99 107 106 246 247 255 254)   (5696 6 150) simpleGrading (1 1 1)


//Set 14
//block A
	hex (104 105 113 112 252 253 261 260)   (697 6 150) simpleGrading (1 1 1)
//block B
	hex (105 106 109 108 253 254 257 256)   (6 2 150) simpleGrading (1 1 1)
//block C
	hex (105 108 110 113 253 256 258 261)   (2 6 150) simpleGrading (1 1 1)
//block D
	hex (110 111 114 113 258 259 262 261)   (6 2 150) simpleGrading (1 1 1)
//block E
	hex (109 106 114 111 257 254 262 259)   (2 6 150) simpleGrading (1 1 1)
//block F
	hex (106 107 115 114 254 255 263 262)   (5696 6 150) simpleGrading (1 1 1)


//Set 15
//block A
	hex (112 113 121 120 260 261 269 268)   (697 6 150) simpleGrading (1 1 1)
//block B
	hex (113 114 117 116 261 262 265 264)   (6 2 150) simpleGrading (1 1 1)
//block C
	hex (113 116 118 121 261 264 266 269)   (2 6 150) simpleGrading (1 1 1)
//block D
	hex (118 119 122 121 266 267 270 269)   (6 2 150) simpleGrading (1 1 1)
//block E
	hex (117 114 122 119 265 262 270 267)   (2 6 150) simpleGrading (1 1 1)
//block F
	hex (114 115 123 122 262 263 271 270)   (5696 6 150) simpleGrading (1 1 1)


//Set 16
//block A
	hex (120 121 129 128 268 269 277 276)   (697 6 150) simpleGrading (1 1 1)
//block B
	hex (121 122 125 124 269 270 273 272)   (6 2 150) simpleGrading (1 1 1)
//block C
	hex (121 124 126 129 269 272 274 277)   (2 6 150) simpleGrading (1 1 1)
//block D
	hex (126 127 130 129 274 275 278 277)   (6 2 150) simpleGrading (1 1 1)
//block E
	hex (125 122 130 127 273 270 278 275)   (2 6 150) simpleGrading (1 1 1)
//block F
	hex (122 123 131 130 270 271 279 278)   (5696 6 150) simpleGrading (1 1 1)


//Set 17
//block A
	hex (128 129 137 136 276 277 285 284)   (697 6 150) simpleGrading (1 1 1)
//block B
	hex (129 130 133 132 277 278 281 280)   (6 2 150) simpleGrading (1 1 1)
//block C
	hex (129 132 134 137 277 280 282 285)   (2 6 150) simpleGrading (1 1 1)
//block D
	hex (134 135 138 137 282 283 286 285)   (6 2 150) simpleGrading (1 1 1)
//block E
	hex (133 130 138 135 281 278 286 283)   (2 6 150) simpleGrading (1 1 1)
//block F
	hex (130 131 139 138 278 279 287 286)   (5696 6 150) simpleGrading (1 1 1)


//Set 18
//block A
	hex (136 137 145 144 284 285 293 292)   (697 6 150) simpleGrading (1 1 1)
//block B
	hex (137 138 141 140 285 286 289 288)   (6 2 150) simpleGrading (1 1 1)
//block C
	hex (137 140 142 145 285 288 290 293)   (2 6 150) simpleGrading (1 1 1)
//block D
	hex (142 143 146 145 290 291 294 293)   (6 2 150) simpleGrading (1 1 1)
//block E
	hex (141 138 146 143 289 286 294 291)   (2 6 150) simpleGrading (1 1 1)
//block F
	hex (138 139 147 146 286 287 295 294)   (5696 6 150) simpleGrading (1 1 1)


);

edges
(
//set #1
	arc 5 4 (3.5 0.0102777 0)
	arc 4 6 (3.495 0.0152777 0)
	arc 6 7 (3.5 0.02028 0)
	arc 7 5 (3.505 0.0152777 0)


	arc 153 152 (3.5 0.0102777 0.45)
	arc 152 154 (3.495 0.0152777 0.45)
	arc 154 155 (3.5 0.02028 0.45)
	arc 155 153 (3.505 0.0152777 0.45)


//set #2
	arc 13 12 (3.5 0.0408327 0)
	arc 12 14 (3.495 0.0458327 0)
	arc 14 15 (3.5 0.050835 0)
	arc 15 13 (3.505 0.0458327 0)


	arc 161 160 (3.5 0.0408327 0.45)
	arc 160 162 (3.495 0.0458327 0.45)
	arc 162 163 (3.5 0.050835 0.45)
	arc 163 161 (3.505 0.0458327 0.45)


//set #3
	arc 21 20 (3.5 0.0713877 0)
	arc 20 22 (3.495 0.0763877 0)
	arc 22 23 (3.5 0.08138999999999999 0)
	arc 23 21 (3.505 0.0763877 0)


	arc 169 168 (3.5 0.0713877 0.45)
	arc 168 170 (3.495 0.0763877 0.45)
	arc 170 171 (3.5 0.08138999999999999 0.45)
	arc 171 169 (3.505 0.0763877 0.45)


//set #4
	arc 29 28 (3.5 0.1019427 0)
	arc 28 30 (3.495 0.1069427 0)
	arc 30 31 (3.5 0.11194499999999999 0)
	arc 31 29 (3.505 0.1069427 0)


	arc 177 176 (3.5 0.1019427 0.45)
	arc 176 178 (3.495 0.1069427 0.45)
	arc 178 179 (3.5 0.11194499999999999 0.45)
	arc 179 177 (3.505 0.1069427 0.45)


//set #5
	arc 37 36 (3.5 0.1324977 0)
	arc 36 38 (3.495 0.1374977 0)
	arc 38 39 (3.5 0.1425 0)
	arc 39 37 (3.505 0.1374977 0)


	arc 185 184 (3.5 0.1324977 0.45)
	arc 184 186 (3.495 0.1374977 0.45)
	arc 186 187 (3.5 0.1425 0.45)
	arc 187 185 (3.505 0.1374977 0.45)


//set #6
	arc 45 44 (3.5 0.1630527 0)
	arc 44 46 (3.495 0.1680527 0)
	arc 46 47 (3.5 0.173055 0)
	arc 47 45 (3.505 0.1680527 0)


	arc 193 192 (3.5 0.1630527 0.45)
	arc 192 194 (3.495 0.1680527 0.45)
	arc 194 195 (3.5 0.173055 0.45)
	arc 195 193 (3.505 0.1680527 0.45)


//set #7
	arc 53 52 (3.5 0.1936077 0)
	arc 52 54 (3.495 0.1986077 0)
	arc 54 55 (3.5 0.20360999999999999 0)
	arc 55 53 (3.505 0.1986077 0)


	arc 201 200 (3.5 0.1936077 0.45)
	arc 200 202 (3.495 0.1986077 0.45)
	arc 202 203 (3.5 0.20360999999999999 0.45)
	arc 203 201 (3.505 0.1986077 0.45)


//set #8
	arc 61 60 (3.5 0.2241627 0)
	arc 60 62 (3.495 0.2291627 0)
	arc 62 63 (3.5 0.23416499999999998 0)
	arc 63 61 (3.505 0.2291627 0)


	arc 209 208 (3.5 0.2241627 0.45)
	arc 208 210 (3.495 0.2291627 0.45)
	arc 210 211 (3.5 0.23416499999999998 0.45)
	arc 211 209 (3.505 0.2291627 0.45)


//set #9
	arc 69 68 (3.5 0.2547177 0)
	arc 68 70 (3.495 0.2597177 0)
	arc 70 71 (3.5 0.26472 0)
	arc 71 69 (3.505 0.2597177 0)


	arc 217 216 (3.5 0.2547177 0.45)
	arc 216 218 (3.495 0.2597177 0.45)
	arc 218 219 (3.5 0.26472 0.45)
	arc 219 217 (3.505 0.2597177 0.45)


//set #10
	arc 77 76 (3.5 0.2852727 0)
	arc 76 78 (3.495 0.2902727 0)
	arc 78 79 (3.5 0.295275 0)
	arc 79 77 (3.505 0.2902727 0)


	arc 225 224 (3.5 0.2852727 0.45)
	arc 224 226 (3.495 0.2902727 0.45)
	arc 226 227 (3.5 0.295275 0.45)
	arc 227 225 (3.505 0.2902727 0.45)


//set #11
	arc 85 84 (3.5 0.3158277 0)
	arc 84 86 (3.495 0.3208277 0)
	arc 86 87 (3.5 0.32583 0)
	arc 87 85 (3.505 0.3208277 0)


	arc 233 232 (3.5 0.3158277 0.45)
	arc 232 234 (3.495 0.3208277 0.45)
	arc 234 235 (3.5 0.32583 0.45)
	arc 235 233 (3.505 0.3208277 0.45)


//set #12
	arc 93 92 (3.5 0.3463827 0)
	arc 92 94 (3.495 0.3513827 0)
	arc 94 95 (3.5 0.356385 0)
	arc 95 93 (3.505 0.3513827 0)


	arc 241 240 (3.5 0.3463827 0.45)
	arc 240 242 (3.495 0.3513827 0.45)
	arc 242 243 (3.5 0.356385 0.45)
	arc 243 241 (3.505 0.3513827 0.45)


//set #13
	arc 101 100 (3.5 0.3769377 0)
	arc 100 102 (3.495 0.3819377 0)
	arc 102 103 (3.5 0.38694 0)
	arc 103 101 (3.505 0.3819377 0)


	arc 249 248 (3.5 0.3769377 0.45)
	arc 248 250 (3.495 0.3819377 0.45)
	arc 250 251 (3.5 0.38694 0.45)
	arc 251 249 (3.505 0.3819377 0.45)


//set #14
	arc 109 108 (3.5 0.4074927 0)
	arc 108 110 (3.495 0.4124927 0)
	arc 110 111 (3.5 0.417495 0)
	arc 111 109 (3.505 0.4124927 0)


	arc 257 256 (3.5 0.4074927 0.45)
	arc 256 258 (3.495 0.4124927 0.45)
	arc 258 259 (3.5 0.417495 0.45)
	arc 259 257 (3.505 0.4124927 0.45)


//set #15
	arc 117 116 (3.5 0.4380477 0)
	arc 116 118 (3.495 0.4430477 0)
	arc 118 119 (3.5 0.44805 0)
	arc 119 117 (3.505 0.4430477 0)


	arc 265 264 (3.5 0.4380477 0.45)
	arc 264 266 (3.495 0.4430477 0.45)
	arc 266 267 (3.5 0.44805 0.45)
	arc 267 265 (3.505 0.4430477 0.45)


//set #16
	arc 125 124 (3.5 0.4686027 0)
	arc 124 126 (3.495 0.4736027 0)
	arc 126 127 (3.5 0.478605 0)
	arc 127 125 (3.505 0.4736027 0)


	arc 273 272 (3.5 0.4686027 0.45)
	arc 272 274 (3.495 0.4736027 0.45)
	arc 274 275 (3.5 0.478605 0.45)
	arc 275 273 (3.505 0.4736027 0.45)


//set #17
	arc 133 132 (3.5 0.4991577 0)
	arc 132 134 (3.495 0.5041576999999999 0)
	arc 134 135 (3.5 0.50916 0)
	arc 135 133 (3.505 0.5041576999999999 0)


	arc 281 280 (3.5 0.4991577 0.45)
	arc 280 282 (3.495 0.5041576999999999 0.45)
	arc 282 283 (3.5 0.50916 0.45)
	arc 283 281 (3.505 0.5041576999999999 0.45)


//set #18
	arc 141 140 (3.5 0.5297126999999999 0)
	arc 140 142 (3.495 0.5347126999999999 0)
	arc 142 143 (3.5 0.539715 0)
	arc 143 141 (3.505 0.5347126999999999 0)


	arc 289 288 (3.5 0.5297126999999999 0.45)
	arc 288 290 (3.495 0.5347126999999999 0.45)
	arc 290 291 (3.5 0.539715 0.45)
	arc 291 289 (3.505 0.5347126999999999 0.45)


);

boundary
(
	bottom1
	{
		type wall;
		faces
		(
			//bottom1
			(0 1 9 8)
			(8 9 17 16)
			(16 17 25 24)
			(24 25 33 32)
			(32 33 41 40)
			(40 41 49 48)
			(48 49 57 56)
			(56 57 65 64)
			(64 65 73 72)
			(72 73 81 80)
			(80 81 89 88)
			(88 89 97 96)
			(96 97 105 104)
			(104 105 113 112)
			(112 113 121 120)
			(120 121 129 128)
			(128 129 137 136)
			(136 137 145 144)
		);
	}
	bottom2
	{
		type wall;
		faces
		(
			//bottom2
			//Set  1
			(1 2 5 4)
			(1 4 6 9)
			(6 7 10 9)
			(5 2 10 7)
			(2 3 11 10)


			//Set  2
			(9 10 13 12)
			(9 12 14 17)
			(14 15 18 17)
			(13 10 18 15)
			(10 11 19 18)


			//Set  3
			(17 18 21 20)
			(17 20 22 25)
			(22 23 26 25)
			(21 18 26 23)
			(18 19 27 26)


			//Set  4
			(25 26 29 28)
			(25 28 30 33)
			(30 31 34 33)
			(29 26 34 31)
			(26 27 35 34)


			//Set  5
			(33 34 37 36)
			(33 36 38 41)
			(38 39 42 41)
			(37 34 42 39)
			(34 35 43 42)


			//Set  6
			(41 42 45 44)
			(41 44 46 49)
			(46 47 50 49)
			(45 42 50 47)
			(42 43 51 50)


			//Set  7
			(49 50 53 52)
			(49 52 54 57)
			(54 55 58 57)
			(53 50 58 55)
			(50 51 59 58)


			//Set  8
			(57 58 61 60)
			(57 60 62 65)
			(62 63 66 65)
			(61 58 66 63)
			(58 59 67 66)


			//Set  9
			(65 66 69 68)
			(65 68 70 73)
			(70 71 74 73)
			(69 66 74 71)
			(66 67 75 74)


			//Set  10
			(73 74 77 76)
			(73 76 78 81)
			(78 79 82 81)
			(77 74 82 79)
			(74 75 83 82)


			//Set  11
			(81 82 85 84)
			(81 84 86 89)
			(86 87 90 89)
			(85 82 90 87)
			(82 83 91 90)


			//Set  12
			(89 90 93 92)
			(89 92 94 97)
			(94 95 98 97)
			(93 90 98 95)
			(90 91 99 98)


			//Set  13
			(97 98 101 100)
			(97 100 102 105)
			(102 103 106 105)
			(101 98 106 103)
			(98 99 107 106)


			//Set  14
			(105 106 109 108)
			(105 108 110 113)
			(110 111 114 113)
			(109 106 114 111)
			(106 107 115 114)


			//Set  15
			(113 114 117 116)
			(113 116 118 121)
			(118 119 122 121)
			(117 114 122 119)
			(114 115 123 122)


			//Set  16
			(121 122 125 124)
			(121 124 126 129)
			(126 127 130 129)
			(125 122 130 127)
			(122 123 131 130)


			//Set  17
			(129 130 133 132)
			(129 132 134 137)
			(134 135 138 137)
			(133 130 138 135)
			(130 131 139 138)


			//Set  18
			(137 138 141 140)
			(137 140 142 145)
			(142 143 146 145)
			(141 138 146 143)
			(138 139 147 146)


		);
	}

	front
	{
		type wall;
		faces
		(
			(0 1 149 148)
			(1 2 150 149)
			(2 3 151 150)
		);
	}

	back
	{
		type wall;
		faces
		(
			(144 145 293 292)
			(145 146 294 293)
			(146 147 295 294)
		);
	}

	leftwall
	{
		type wall;
		faces
		(
			(0 8 156 148)
			(8 16 164 156)
			(16 24 172 164)
			(24 32 180 172)
			(32 40 188 180)
			(40 48 196 188)
			(48 56 204 196)
			(56 64 212 204)
			(64 72 220 212)
			(72 80 228 220)
			(80 88 236 228)
			(88 96 244 236)
			(96 104 252 244)
			(104 112 260 252)
			(112 120 268 260)
			(120 128 276 268)
			(128 136 284 276)
			(136 144 292 284)
		);
	}

	rightwall
	{
		type wall;
		faces
		(
			(3 11 159 151)
			(11 19 167 159)
			(19 27 175 167)
			(27 35 183 175)
			(35 43 191 183)
			(43 51 199 191)
			(51 59 207 199)
			(59 67 215 207)
			(67 75 223 215)
			(75 83 231 223)
			(83 91 239 231)
			(91 99 247 239)
			(99 107 255 247)
			(107 115 263 255)
			(115 123 271 263)
			(123 131 279 271)
			(131 139 287 279)
			(139 147 295 287)
		);
	}

	top
	{
		type wall;
		faces
		(
			//Set  1
			(148 149 157 156)
			(149 150 153 152)
			(149 152 154 157)
			(154 155 158 157)
			(153 150 158 155)
			(150 151 159 158)


			//Set  2
			(156 157 165 164)
			(157 158 161 160)
			(157 160 162 165)
			(162 163 166 165)
			(161 158 166 163)
			(158 159 167 166)


			//Set  3
			(164 165 173 172)
			(165 166 169 168)
			(165 168 170 173)
			(170 171 174 173)
			(169 166 174 171)
			(166 167 175 174)


			//Set  4
			(172 173 181 180)
			(173 174 177 176)
			(173 176 178 181)
			(178 179 182 181)
			(177 174 182 179)
			(174 175 183 182)


			//Set  5
			(180 181 189 188)
			(181 182 185 184)
			(181 184 186 189)
			(186 187 190 189)
			(185 182 190 187)
			(182 183 191 190)


			//Set  6
			(188 189 197 196)
			(189 190 193 192)
			(189 192 194 197)
			(194 195 198 197)
			(193 190 198 195)
			(190 191 199 198)


			//Set  7
			(196 197 205 204)
			(197 198 201 200)
			(197 200 202 205)
			(202 203 206 205)
			(201 198 206 203)
			(198 199 207 206)


			//Set  8
			(204 205 213 212)
			(205 206 209 208)
			(205 208 210 213)
			(210 211 214 213)
			(209 206 214 211)
			(206 207 215 214)


			//Set  9
			(212 213 221 220)
			(213 214 217 216)
			(213 216 218 221)
			(218 219 222 221)
			(217 214 222 219)
			(214 215 223 222)


			//Set  10
			(220 221 229 228)
			(221 222 225 224)
			(221 224 226 229)
			(226 227 230 229)
			(225 222 230 227)
			(222 223 231 230)


			//Set  11
			(228 229 237 236)
			(229 230 233 232)
			(229 232 234 237)
			(234 235 238 237)
			(233 230 238 235)
			(230 231 239 238)


			//Set  12
			(236 237 245 244)
			(237 238 241 240)
			(237 240 242 245)
			(242 243 246 245)