/*--------------------------------*- C++ -*----------------------------------*\
| =========                 |                                                 |
| \\      /  F ield         | OpenFOAM: The Open Source CFD Toolbox           |
|  \\    /   O peration     | Version:  v2312                                 |
|   \\  /    A nd           | Website:  www.openfoam.com                      |
|    \\/     M anipulation  |                                                 |
\*---------------------------------------------------------------------------*/
FoamFile
{
    version         2.0;
    format          ascii;
    class           dictionary;
    object          blockMeshDict;
}
// * * * * * * * * * * * * * * * * * * * * * * * * * * * * * * * * * * * * * //

scale   1;

vertices
(
   (0  0  0) // vertex 0
   (16  0  0) // vertex 1
   (16  0  0.45) // 2
   (0  0  0.45) //3
   (0  0.55  0) //4
   (16  0.55  0) //5
   (16  0.55  0.45) //6
   (0  0.55  0.45) //7
   (32  0  0) //8
   (32  0  0.45) //9
   (32  0.55  0.45) //10
   (32  0.55  0) //11
);

blocks
(
//    hex (0 1 5 4 3 2 6 7)   (200 28 10) simpleGrading (1 1 1)
//    hex (1 8 11 5 2 9 10 6)   (200 28 10) simpleGrading (1 1 1)

    hex (0 1 5 4 3 2 6 7)   (3200 110 150) simpleGrading (1 1 1)
    hex (1 8 11 5 2 9 10 6)   (3200 110 150) simpleGrading (1 1 1)
);

edges
(
);

boundary
(
    bottom1
    {
        type wall;
        faces
        (
            (0 1 5 4)
        );
    }
    bottom2
    {
        type wall;
        faces
        (
            (1 8 11 5)
        );
    }
    front
    {
        type wall;
        faces
        (
            (0 1 2 3)
            (1 8 9 2)
        );
    }
    back
    {
        type wall;
        faces
        (
            (4 5 6 7)
            (5 11 10 6)
        );
    }
    leftwall
    {
        type wall;
        faces
        (
            (0 4 7 3)
        );
    }
    rightwall
    {
        type wall;
        faces
        (
            (8 11 10 9)
        );
    }
    top
    {
        type wall;
        faces
        (
            (3 2 6 7)
            (2 9 10 6)
        );
    }
);

// ************************************************************************* //

